&jules_input_grid
nx=1,
ny=1,
/
&jules_latlon
latitude=51.53,
longitude=-1.48,
/
&jules_land_frac
/
&jules_model_grid
force_1d_grid=.false.,
land_only=.false.,
use_subgrid=.false.,
/
&jules_surf_hgt
zero_height=.true.,
/
